Circuit: * C:\users\sandhra\My Documents\LTspiceXVII\Draft6.asc

Limiting rise time of source v§b to 0.0005
Limiting fall time of source v§b to 0.0005
Limiting rise time of source v§a to 0.0002
Limiting fall time of source v§a to 0.0002
WARNING: Less than two connections to node NC_01.  This node is used by R:U1:OUT:OUT.
WARNING: Less than two connections to node NC_02.  This node is used by R:U2:OUT:OUT.
WARNING: Less than two connections to node NC_03.  This node is used by V§A.
WARNING: Less than two connections to node NC_04.  This node is used by V§B.
Direct Newton iteration for .op point succeeded.
Ignoring empty pin current: Ix(u1:vcc)
Ignoring empty pin current: Ix(u2:vcc)
Ignoring empty pin current: Ix(u1:vcc)
Ignoring empty pin current: Ix(u2:vcc)

Date: Tue Sep 22 13:24:03 2020
Total elapsed time: 0.175 seconds.

tnom = 27
temp = 27
method = modified trap
totiter = 2623
traniter = 2620
tranpoints = 1311
accept = 1267
rejected = 44
matrix size = 32
fillins = 0
solver = Normal
Matrix Compiler1: 906 bytes object code size  0.7/0.4/[0.3]
Matrix Compiler2: off  [0.2]/0.6/0.3

