Circuit: * C:\users\sandhra\My Documents\LTspiceXVII\Draft11.asc

Error on line 7 : g1 n001 v1 v1 0 -2*v1
	 Unknown parameter "*v1"
Direct Newton iteration for .op point succeeded.

Date: Fri Nov 20 00:22:41 2020
Total elapsed time: 0.092 seconds.

tnom = 27
temp = 27
method = modified trap
totiter = 2091
traniter = 2088
tranpoints = 1045
accept = 1045
rejected = 0
matrix size = 2
fillins = 0
solver = Normal
Matrix Compiler1:       3 opcodes  0.1/[0.1]/0.1
Matrix Compiler2: off  [0.1]/0.1/0.1

