Circuit: * C:\users\sandhra\My Documents\LTspiceXVII\Draft10.asc

Error on line 1098 : .model switch8 sw(ron=1 roff=1 meg vt=.5 vh=-.4)
	* Unrecognized parameter "meg" -- ignored
Error on line 1097 : .model switch7 sw(ron=1 roff=1 meg vt=.5 vh=-.4)
	* Unrecognized parameter "meg" -- ignored
Error on line 1096 : .model switch6 sw(ron=1 roff=1 meg vt=.5 vh=-.4)
	* Unrecognized parameter "meg" -- ignored
Error on line 1095 : .model switch5 sw(ron=1 roff=1 meg vt=.5 vh=-.4)
	* Unrecognized parameter "meg" -- ignored
Error on line 1094 : .model switch4 sw(ron=1 roff=1 meg vt=.5 vh=-.4)
	* Unrecognized parameter "meg" -- ignored
Error on line 1093 : .model switch2 sw(ron=1 roff=1 meg vt=.5 vh=-.4)
	* Unrecognized parameter "meg" -- ignored
Error on line 1092 : .model switch3 sw(ron=1 roff=1 meg vt=.5 vh=-.4)
	* Unrecognized parameter "meg" -- ignored
Limiting rise time of source v2 to 5e-008
Limiting fall time of source v2 to 5e-008
WARNING: Node NC_01 is floating.
WARNING: Node N007 is floating.

Direct Newton iteration failed to find .op point.  (Use ".option noopiter" to skip.)
Starting Gmin stepping
Gmin = 10
Gmin = 1.07374
Gmin = 0.115292
Gmin = 0.0123794
Gmin = 0.00132923
Gmin = 0.000142725
vernier = 0.5
vernier = 0.25
vernier = 0.125
vernier = 0.0625
vernier = 0.03125
vernier = 0.015625
vernier = 0.0078125
vernier = 0.00390625
Gmin = 0.00011418
vernier = 0.00195313
vernier = 0.000976563
vernier = 0.000488281
Gmin = 0
Gmin stepping failed

Starting source stepping with srcstepmethod=0
Source Step = 3.0303%
Source Step = 33.3333%
Source Step = 63.6364%
Source Step = 69.7058%
Starting source stepping with srcstepmethod=1
Source Step = 3.0303%
Source Step = 33.3333%
Source Step = 63.6364%
Source Step = 93.9394%
vernier = 0.25
Source stepping failed

Pseudo Transient succeeded in finding the operating point at 268.446 ms.
Ignoring empty pin current: Ix(u1:vcc)
Ignoring empty pin current: Ix(u2:vcc)
Ignoring empty pin current: Ix(u3:vcc)
Ignoring empty pin current: Ix(u4:vcc)
Ignoring empty pin current: Ix(u5:vcc)
Ignoring empty pin current: Ix(u1:vcc)
Ignoring empty pin current: Ix(u2:vcc)
Ignoring empty pin current: Ix(u3:vcc)
Ignoring empty pin current: Ix(u4:vcc)
Ignoring empty pin current: Ix(u5:vcc)
Heightened Def Con from 5.99e-007 +++++++++++++++++++++to 6.001e-007
Heightened Def Con from 1.599e-006 +++++++++++++++++++++to 1.602e-006
Heightened Def Con from 2.599e-006 +++++++++++++++++++++to 2.602e-006
Heightened Def Con from 3.599e-006 +++++++++++++++++++++to 3.602e-006
Heightened Def Con from 4.599e-006 +++++++++++++++++++++to 4.602e-006
Heightened Def Con from 5.599e-006 +++++++++++++++++++++to 5.602e-006
Heightened Def Con from 6.599e-006 +++++++++++++++++++++to 6.602e-006
Heightened Def Con from 7.599e-006 +++++++++++++++++++++to 7.602e-006
Heightened Def Con from 8.599e-006 +++++++++++++++++++++to 8.602e-006
Heightened Def Con from 9.599e-006 +++++++++++++++++++++to 9.602e-006
Heightened Def Con from 1.0599e-005 +++++++++++++++++++++to 1.0602e-005
Heightened Def Con from 1.1599e-005 +++++++++++++++++++++to 1.1602e-005
Heightened Def Con from 1.2599e-005 +++++++++++++++++++++to 1.2602e-005
Heightened Def Con from 1.3599e-005 +++++++++++++++++++++to 1.3602e-005
Heightened Def Con from 1.4599e-005 +++++++++++++++++++++to 1.4602e-005
Heightened Def Con from 1.5599e-005 +++++++++++++++++++++to 1.5602e-005
Heightened Def Con from 1.6599e-005 +++++++++++++++++++++to 1.6602e-005
Heightened Def Con from 1.7599e-005 +++++++++++++++++++++to 1.7602e-005
Heightened Def Con from 1.8599e-005 +++++++++++++++++++++to 1.8602e-005
Heightened Def Con from 1.9599e-005 +++++++++++++++++++++to 1.9602e-005

Date: Wed Jan 20 18:55:28 2021
Total elapsed time: 2.335 seconds.

tnom = 27
temp = 27
method = modified trap
totiter = 85934
traniter = 76435
tranpoints = 10542
accept = 4795
rejected = 6230
matrix size = 60
fillins = 30
solver = Normal
Matrix Compiler1: 3.61 KB object code size  2.4/1.3/[0.5]
Matrix Compiler2: 4.46 KB object code size  1.5/2.6/[1.0]

