Circuit: * C:\users\sandhra\My Documents\LTspiceXVII\Draft2.asc

Direct Newton iteration for .op point succeeded.

Date: Tue Sep 08 00:33:35 2020
Total elapsed time: 1.479 seconds.

tnom = 27
temp = 27
method = modified trap
totiter = 463233
traniter = 463230
tranpoints = 109009
accept = 81763
rejected = 27246
matrix size = 3
fillins = 0
solver = Normal
Matrix Compiler1:       5 opcodes  0.1/[0.1]/0.1
Matrix Compiler2: off  [0.1]/0.1/0.1

