Circuit: * C:\users\sandhra\My Documents\LTspiceXVII\Draft8.asc

Limiting rise time of source v3 to 0.0002
Limiting fall time of source v3 to 0.0002
Limiting rise time of source v2 to 0.0002
Limiting fall time of source v2 to 0.0002
WARNING: Less than two connections to node C.  This node is used by R:U3:OUT:OUT.
Direct Newton iteration for .op point succeeded.
Ignoring empty pin current: Ix(u1:vcc)
Ignoring empty pin current: Ix(u2:vcc)
Ignoring empty pin current: Ix(u3:vcc)
Ignoring empty pin current: Ix(u1:vcc)
Ignoring empty pin current: Ix(u2:vcc)
Ignoring empty pin current: Ix(u3:vcc)

Date: Thu Sep 24 00:46:09 2020
Total elapsed time: 0.264 seconds.

tnom = 27
temp = 27
method = modified trap
totiter = 9719
traniter = 9710
tranpoints = 2803
accept = 2211
rejected = 592
matrix size = 45
fillins = 2
solver = Normal
Matrix Compiler1: 1.22 KB object code size  1.0/0.6/[0.3]
Matrix Compiler2: 2.33 KB object code size  0.4/0.8/[0.3]

